35

C  2.519488079  -0.1901378169  0.7411550718
C  1.1358216154  0.1873593616  0.247671703
O  0.5755156065  -0.7815772589  -0.6197409526
C  0.1562667818  0.4120293174  1.3854534192
O  -0.9412803937  -0.0776655615  1.3578200222
H  2.4817919501  -1.1330306119  1.3026245265
H  2.9026137333  0.6005323197  1.4019360137
H  3.2148921094  -0.2870472829  -0.1028261189
H  1.1984948465  1.15072791  -0.2968540618
H  0.494217739  1.0671593601  2.2208489017
H  -0.3923867669  -0.7559593391  -0.4737707896
Sn  0.6180710684  -3.1878212669  -0.7486013621
O  0.6320372875  -5.116678559  -1.0993747066
O  0.9020623698  -3.0970931986  1.1493212501
O  -1.2153160411  -2.7113847825  -1.0558951252
O  2.6318521967  -2.8393873382  -0.8872471734
O  1.0583136975  -2.7932803878  -2.7258556117
H  3.3077067506  -2.89145322  -0.1938204128
H  0.8379652862  -3.558723311  -3.2801097689
Si  -0.0602221392  -3.5304621541  2.3899022536
Si  -1.9243087845  -2.6225085952  -2.5381787073
Si  0.6212116176  -6.7043387025  -0.7521043457
Si  3.0399890629  -2.6399248068  -2.5931185064
H  -0.0824841711  -4.9934349723  2.5302461803
H  -1.4421889711  -2.9895921723  2.3550505803
H  0.7633638289  -2.8766161723  3.3645573803
H  -1.6758087028  -3.6443538876  -3.6309742966
H  2.825445925  -3.6413771845  -3.6430330805
H  -1.7454435028  -1.2744522876  -3.1073378966
H  2.886460325  -1.2742539845  -3.1083934805
H  -3.1720967028  -2.8255630876  -1.9027266966
H  0.5943001294  -6.9998898962  0.7182896523
H  -0.5738146706  -7.3171058962  -1.3863483477
H  1.8531545294  -7.2960930962  -1.3364659477
H  4.417579525  -2.8052811845  -2.0113762805
