35
57.017080109268136
C        2.985733      -0.338337       1.150129
C        1.724719       0.191709       1.224746
O        0.581809      -1.133652      -0.544889
C        0.882627      -0.013055       2.434193
O        0.041179      -0.871715       2.527233
H        1.473039      -2.463693       1.287441
H        3.510211      -0.673172       2.035688
H        3.575210      -0.256785       0.248547
H        1.369262       0.970386       0.553639
H        1.084587       0.694685       3.268552
H       -0.307171      -0.986343      -0.228997
Sn       0.634552      -3.118308      -0.977694
O        0.706813      -5.148969      -0.959734
O        0.801802      -3.134469       1.138740
O       -1.297118      -3.088490      -1.141785
O        2.670647      -2.951024      -0.952608
O        1.062797      -2.604019      -2.903791
H        3.234376      -3.251337      -0.243978
H        0.553299      -2.989048      -3.613381
Si      -0.107636      -3.552155       2.443211
Si      -1.948518      -2.634480      -2.548535
Si       0.626890      -6.737574      -0.727411
Si       3.062231      -2.626825      -2.607988
H       -0.082093      -4.993213       2.530076
H       -1.441798      -2.989370       2.354880
H        0.763755      -2.876394       3.364387
H       -1.675707      -3.644508      -3.630539
H        2.825129      -3.640395      -3.642461
H       -1.745342      -1.274606      -3.106903
H        2.886143      -1.273272      -3.107821
H       -3.171995      -2.825717      -1.902292
H        0.594469      -6.999978       0.718542
H       -0.573646      -7.317194      -1.386096
H        1.853323      -7.296181      -1.336214
H        4.417262      -2.804299      -2.010804
35
55.14713873411529
C        2.952459      -0.343648       1.111789
C        1.723691       0.176784       1.173172
O        0.595216      -1.173322      -0.593336
C        0.900068      -0.010006       2.408346
O        0.089174      -0.900737       2.516533
H        1.472039      -2.442615       1.265428
H        3.449132      -0.673868       2.004623
H        3.565592      -0.281090       0.220143
H        1.362312       0.923017       0.501403
H        1.083072       0.695659       3.232414
H       -0.290688      -1.041023      -0.298330
Sn       0.625303      -3.126300      -1.013522
O        0.722209      -5.135855      -0.970111
O        0.807079      -3.120391       1.127740
O       -1.268852      -3.094405      -1.198505
O        2.641115      -2.935431      -0.979196
O        1.040410      -2.611459      -2.922637
H        3.206750      -3.218911      -0.278526
H        0.530546      -2.994616      -3.629645
Si      -0.082781      -3.528137       2.461744
Si      -1.950924      -2.660202      -2.587940
Si       0.650434      -6.725730      -0.743989
Si       3.035226      -2.620919      -2.642045
H       -0.082093      -4.993213       2.530076
H       -1.441798      -2.989370       2.354880
H        0.763755      -2.876394       3.364387
H       -1.675707      -3.644508      -3.630539
H        2.825129      -3.640395      -3.642461
H       -1.745342      -1.274606      -3.106903
H        2.886143      -1.273272      -3.107821
H       -3.171995      -2.825717      -1.902292
H        0.594469      -6.999978       0.718542
H       -0.573646      -7.317194      -1.386096
H        1.853323      -7.296181      -1.336214
H        4.417262      -2.804299      -2.010804
35
54.99446553742018
C        2.966839      -0.358630       1.141588
C        1.717986       0.170732       1.200557
O        0.593787      -1.163564      -0.569528
C        0.864751      -0.032343       2.410160
O        0.041965      -0.912766       2.496846
H        1.475850      -2.449065       1.275741
H        3.469675      -0.713134       2.025451
H        3.575551      -0.280654       0.253640
H        1.371142       0.938047       0.524045
H        1.047195       0.670847       3.246483
H       -0.297728      -1.019665      -0.276640
Sn       0.632567      -3.124246      -0.990406
O        0.708474      -5.141788      -0.954316
O        0.805156      -3.125967       1.131962
O       -1.281135      -3.087067      -1.161959
O        2.654797      -2.953841      -0.962959
O        1.058694      -2.608297      -2.906467
H        3.216828      -3.255193      -0.255708
H        0.547054      -2.989484      -3.619392
Si      -0.103315      -3.533680       2.443747
Si      -1.948672      -2.639244      -2.559623
Si       0.633204      -6.727134      -0.726792
Si       3.056538      -2.629779      -2.622839
H       -0.082093      -4.993213       2.530076
H       -1.441798      -2.989370       2.354880
H        0.763755      -2.876394       3.364387
H       -1.675707      -3.644508      -3.630539
H        2.825129      -3.640395      -3.642461
H       -1.745342      -1.274606      -3.106903
H        2.886143      -1.273272      -3.107821
H       -3.171995      -2.825717      -1.902292
H        0.594469      -6.999978       0.718542
H       -0.573646      -7.317194      -1.386096
H        1.853323      -7.296181      -1.336214
H        4.417262      -2.804299      -2.010804
35
53.816496810854005
C        2.940372      -0.386300       1.140272
C        1.708631       0.145278       1.190076
O        0.598838      -1.184343      -0.582174
C        0.842518      -0.035430       2.394468
O        0.009478      -0.904769       2.504283
H        1.459746      -2.457156       1.270336
H        3.438832      -0.750766       2.030607
H        3.549560      -0.312281       0.253792
H        1.376809       0.906928       0.497690
H        1.032037       0.689811       3.214572
H       -0.293185      -1.028150      -0.294590
Sn       0.628540      -3.127801      -1.003494
O        0.706847      -5.144429      -0.969841
O        0.795717      -3.134414       1.133430
O       -1.275420      -3.086731      -1.180804
O        2.652842      -2.959389      -0.970453
O        1.059539      -2.609881      -2.914737
H        3.199905      -3.265305      -0.252831
H        0.545955      -2.988369      -3.626784
Si      -0.114328      -3.527426       2.443127
Si      -1.947345      -2.640828      -2.577497
Si       0.629785      -6.725044      -0.722461
Si       3.060910      -2.636679      -2.640157
H       -0.082093      -4.993213       2.530076
H       -1.441798      -2.989370       2.354880
H        0.763755      -2.876394       3.364387
H       -1.675707      -3.644508      -3.630539
H        2.825129      -3.640395      -3.642461
H       -1.745342      -1.274606      -3.106903
H        2.886143      -1.273272      -3.107821
H       -3.171995      -2.825717      -1.902292
H        0.594469      -6.999978       0.718542
H       -0.573646      -7.317194      -1.386096
H        1.853323      -7.296181      -1.336214
H        4.417262      -2.804299      -2.010804
