35
80.57091387156106
C        2.513628      -0.475615       0.905739
C        1.108611      -0.045219       0.652331
O        0.496247      -0.941395      -0.365476
C        0.364022      -0.166372       1.934075
O       -0.582208      -0.899308       2.092269
H        1.893628      -2.370211       1.404320
H        2.985439      -0.041982       1.783362
H        3.155091      -0.468380       0.030114
H        0.981776       0.927697       0.164557
H        0.798265       0.437890       2.747209
H       -0.435233      -1.041690      -0.119978
Sn       0.637371      -3.132854      -0.860159
O        0.618805      -5.200398      -1.024960
O        0.969499      -3.124834       1.237597
O       -1.338188      -2.929641      -1.127074
O        2.700669      -2.837301      -0.955530
O        1.049675      -2.481327      -2.829863
H        3.303960      -3.090542      -0.253248
H        0.481287      -2.825636      -3.522746
Si      -0.087354      -3.565366       2.416474
Si      -1.967824      -2.625698      -2.583627
Si       0.603863      -6.769428      -0.729271
Si       3.036082      -2.641148      -2.621215
H       -0.082093      -4.993213       2.530076
H       -1.441798      -2.989370       2.354880
H        0.763755      -2.876394       3.364387
H       -1.675707      -3.644508      -3.630539
H        2.825129      -3.640395      -3.642461
H       -1.745342      -1.274606      -3.106903
H        2.886143      -1.273272      -3.107821
H       -3.171995      -2.825717      -1.902292
H        0.594469      -6.999978       0.718542
H       -0.573646      -7.317194      -1.386096
H        1.853323      -7.296181      -1.336214
H        4.417262      -2.804299      -2.010804
35
72.4982963742732
C        2.473775      -0.563115       0.905307
C        1.063861      -0.098742       0.636204
O        0.471730      -0.934925      -0.353766
C        0.336542      -0.218718       1.925866
O       -0.613182      -0.952599       2.065293
H        1.853160      -2.372855       1.384012
H        2.952889      -0.161094       1.792917
H        3.108460      -0.561033       0.054410
H        0.978934       0.896653       0.172134
H        0.770924       0.352819       2.757630
H       -0.458451      -1.048975      -0.124062
Sn       0.613380      -3.139590      -0.851610
O        0.606623      -5.226662      -1.014917
O        0.991212      -3.083447       1.242924
O       -1.369173      -2.926773      -1.129493
O        2.648533      -2.844996      -0.926571
O        1.049145      -2.487961      -2.805382
H        3.237039      -3.106075      -0.221037
H        0.484061      -2.828532      -3.503710
Si      -0.080811      -3.512104       2.399284
Si      -1.958968      -2.631501      -2.602841
Si       0.613508      -6.787846      -0.738085
Si       3.023648      -2.653231      -2.586422
H       -0.082093      -4.993213       2.530076
H       -1.441798      -2.989370       2.354880
H        0.763755      -2.876394       3.364387
H       -1.675707      -3.644508      -3.630539
H        2.825129      -3.640395      -3.642461
H       -1.745342      -1.274606      -3.106903
H        2.886143      -1.273272      -3.107821
H       -3.171995      -2.825717      -1.902292
H        0.594469      -6.999978       0.718542
H       -0.573646      -7.317194      -1.386096
H        1.853323      -7.296181      -1.336214
H        4.417262      -2.804299      -2.010804
35
67.38871982863202
C        2.485732      -0.697277       0.960086
C        1.101890      -0.142648       0.688573
O        0.502992      -0.925497      -0.302878
C        0.398811      -0.221309       1.995971
O       -0.585492      -0.905434       2.151128
H        1.828101      -2.415036       1.395493
H        2.954386      -0.305174       1.865352
H        3.118148      -0.709932       0.110365
H        1.045133       0.884273       0.246763
H        0.893067       0.332221       2.822962
H       -0.431193      -1.015688      -0.058189
Sn       0.624153      -3.143729      -0.850247
O        0.617647      -5.235267      -1.040264
O        1.012484      -3.075790       1.278182
O       -1.372425      -2.919290      -1.148467
O        2.679820      -2.849291      -0.915018
O        1.070396      -2.489556      -2.809391
H        3.261659      -3.093220      -0.213695
H        0.517165      -2.830090      -3.505215
Si      -0.076085      -3.506613       2.425314
Si      -1.948743      -2.625398      -2.610805
Si       0.616199      -6.807844      -0.751057
Si       3.043105      -2.647954      -2.589707
H       -0.082093      -4.993213       2.530076
H       -1.441798      -2.989370       2.354880
H        0.763755      -2.876394       3.364387
H       -1.675707      -3.644508      -3.630539
H        2.825129      -3.640395      -3.642461
H       -1.745342      -1.274606      -3.106903
H        2.886143      -1.273272      -3.107821
H       -3.171995      -2.825717      -1.902292
H        0.594469      -6.999978       0.718542
H       -0.573646      -7.317194      -1.386096
H        1.853323      -7.296181      -1.336214
H        4.417262      -2.804299      -2.010804
35
66.90463128192641
C        2.526347      -0.741254       1.087298
C        1.166179      -0.152649       0.788528
O        0.515650      -0.922453      -0.275423
C        0.423959      -0.269007       2.071962
O       -0.586904      -0.908933       2.236090
H        1.803746      -2.429839       1.422058
H        2.961024      -0.372785       2.031262
H        3.217305      -0.734375       0.220080
H        1.148106       0.902743       0.402976
H        0.945466       0.247202       2.908975
H       -0.431238      -1.002118      -0.030343
Sn       0.630627      -3.141650      -0.849402
O        0.643560      -5.228038      -1.035628
O        1.008329      -3.083538       1.286831
O       -1.368892      -2.887124      -1.130794
O        2.755194      -2.849247      -0.929530
O        1.089236      -2.456617      -2.845847
H        3.341446      -3.088123      -0.246203
H        0.544448      -2.781739      -3.540588
Si      -0.104260      -3.546204       2.419726
Si      -1.969576      -2.598917      -2.567515
Si       0.618798      -6.827704      -0.727456
Si       3.079533      -2.615244      -2.625217
H       -0.082093      -4.993213       2.530076
H       -1.441798      -2.989370       2.354880
H        0.763755      -2.876394       3.364387
H       -1.675707      -3.644508      -3.630539
H        2.825129      -3.640395      -3.642461
H       -1.745342      -1.274606      -3.106903
H        2.886143      -1.273272      -3.107821
H       -3.171995      -2.825717      -1.902292
H        0.594469      -6.999978       0.718542
H       -0.573646      -7.317194      -1.386096
H        1.853323      -7.296181      -1.336214
H        4.417262      -2.804299      -2.010804
