35
54.54032198264031
C        2.390986      -0.431786       0.897457
C        0.998387      -0.017507       0.532142
O        0.466426      -0.914890      -0.469615
C        0.123984      -0.053369       1.749787
O       -0.878665      -0.718405       1.798949
H        2.113749      -1.946220       1.439247
H        2.800519       0.142284       1.727693
H        3.062499      -0.449926       0.043802
H        0.946333       0.973509       0.058040
H        0.494341       0.559071       2.587993
H       -0.470523      -1.053852      -0.253889
Sn       0.656069      -3.163387      -0.842771
O        0.675356      -5.191213      -1.006251
O        0.861057      -3.126994       1.191748
O       -1.271202      -2.928094      -1.170429
O        2.685035      -2.808320      -0.928332
O        1.068299      -2.561416      -2.796583
H        3.262265      -3.037958      -0.201626
H        0.518859      -2.953464      -3.476862
Si      -0.103959      -3.560011       2.426211
Si      -1.963053      -2.629213      -2.594547
Si       0.618550      -6.770084      -0.734171
Si       3.039096      -2.635570      -2.615701
H       -0.082093      -4.993213       2.530076
H       -1.441798      -2.989370       2.354880
H        0.763755      -2.876394       3.364387
H       -1.675707      -3.644508      -3.630539
H        2.825129      -3.640395      -3.642461
H       -1.745342      -1.274606      -3.106903
H        2.886143      -1.273272      -3.107821
H       -3.171995      -2.825717      -1.902292
H        0.594469      -6.999978       0.718542
H       -0.573646      -7.317194      -1.386096
H        1.853323      -7.296181      -1.336214
H        4.417262      -2.804299      -2.010804
35
46.553355364907475
C        2.444367      -0.560185       0.917971
C        1.065363      -0.068292       0.550344
O        0.531166      -0.923050      -0.446845
C        0.161974      -0.077697       1.762004
O       -0.866400      -0.709961       1.776954
H        2.121823      -1.980554       1.415098
H        2.893345      -0.041958       1.766197
H        3.117020      -0.623371       0.085995
H        1.051111       0.931271       0.078105
H        0.546492       0.508039       2.613907
H       -0.409488      -1.003870      -0.232832
Sn       0.660670      -3.153612      -0.847420
O        0.669771      -5.182205      -1.010027
O        0.861037      -3.110224       1.195750
O       -1.259076      -2.921001      -1.183002
O        2.680352      -2.826537      -0.925328
O        1.085013      -2.574097      -2.792265
H        3.256542      -3.059221      -0.193157
H        0.534576      -2.977488      -3.470336
Si      -0.125600      -3.544602       2.403920
Si      -1.962499      -2.627063      -2.593982
Si       0.615229      -6.750769      -0.733873
Si       3.047478      -2.659625      -2.618095
H       -0.082093      -4.993213       2.530076
H       -1.441798      -2.989370       2.354880
H        0.763755      -2.876394       3.364387
H       -1.675707      -3.644508      -3.630539
H        2.825129      -3.640395      -3.642461
H       -1.745342      -1.274606      -3.106903
H        2.886143      -1.273272      -3.107821
H       -3.171995      -2.825717      -1.902292
H        0.594469      -6.999978       0.718542
H       -0.573646      -7.317194      -1.386096
H        1.853323      -7.296181      -1.336214
H        4.417262      -2.804299      -2.010804
35
39.04101965090376
C        2.410786      -0.667612       0.990952
C        1.036903      -0.126744       0.601651
O        0.503522      -0.983071      -0.441566
C        0.134930      -0.128453       1.797258
O       -0.902832      -0.737277       1.807977
H        2.064703      -2.016549       1.426789
H        2.844589      -0.195481       1.884310
H        3.094735      -0.714489       0.163652
H        1.049547       0.883540       0.129100
H        0.508517       0.460060       2.649936
H       -0.446198      -1.053703      -0.250055
Sn       0.638780      -3.163151      -0.826714
O        0.672900      -5.181495      -0.999947
O        0.836235      -3.128245       1.198892
O       -1.261694      -2.926334      -1.171874
O        2.665310      -2.829585      -0.899022
O        1.068008      -2.555953      -2.762182
H        3.223865      -3.065933      -0.161579
H        0.523886      -2.946017      -3.446780
Si      -0.125566      -3.551247       2.435454
Si      -1.956009      -2.626776      -2.597851
Si       0.621756      -6.764448      -0.722957
Si       3.049515      -2.630705      -2.606467
H       -0.082093      -4.993213       2.530076
H       -1.441798      -2.989370       2.354880
H        0.763755      -2.876394       3.364387
H       -1.675707      -3.644508      -3.630539
H        2.825129      -3.640395      -3.642461
H       -1.745342      -1.274606      -3.106903
H        2.886143      -1.273272      -3.107821
H       -3.171995      -2.825717      -1.902292
H        0.594469      -6.999978       0.718542
H       -0.573646      -7.317194      -1.386096
H        1.853323      -7.296181      -1.336214
H        4.417262      -2.804299      -2.010804
35
33.283591853243706
C        2.396431      -0.738855       1.039785
C        1.002908      -0.198414       0.628180
O        0.471784      -0.988805      -0.413659
C        0.092194      -0.239205       1.814073
O       -0.936037      -0.853112       1.816827
H        2.038145      -2.005297       1.421639
H        2.827651      -0.313595       1.943438
H        3.080640      -0.733296       0.215269
H        1.019694       0.810022       0.188149
H        0.448792       0.306880       2.701776
H       -0.476955      -1.082585      -0.226746
Sn       0.611513      -3.163110      -0.827358
O        0.660427      -5.190503      -0.983978
O        0.862815      -3.083070       1.184630
O       -1.287224      -2.921143      -1.166762
O        2.616599      -2.839054      -0.900250
O        1.047667      -2.553259      -2.746218
H        3.173722      -3.075377      -0.179338
H        0.501960      -2.924149      -3.438826
Si      -0.110692      -3.512513       2.415250
Si      -1.972520      -2.638309      -2.606844
Si       0.632671      -6.776433      -0.735080
Si       3.024692      -2.633416      -2.591250
H       -0.082093      -4.993213       2.530076
H       -1.441798      -2.989370       2.354880
H        0.763755      -2.876394       3.364387
H       -1.675707      -3.644508      -3.630539
H        2.825129      -3.640395      -3.642461
H       -1.745342      -1.274606      -3.106903
H        2.886143      -1.273272      -3.107821
H       -3.171995      -2.825717      -1.902292
H        0.594469      -6.999978       0.718542
H       -0.573646      -7.317194      -1.386096
H        1.853323      -7.296181      -1.336214
H        4.417262      -2.804299      -2.010804
