701

C	2.100983987	-0.133271298	1.714781589
C	0.603855126	-0.03919268	1.66951529
O	-0.077299622	0.184881887	2.639879819
C	-0.075626996	-0.222123928	0.322244713
O	0.748960724	-0.867669982	-0.626214537
H	2.364842575	-1.195846882	1.600135079
H	2.460530177	0.236323268	2.682699944
H	2.56916296	0.411993233	0.883048823
H	-0.341797824	0.78404335	-0.044929118
H	-1.017920698	-0.77421523	0.468711807
H	0.69444699	-0.405406427	-1.510995551
O	0.600376835	0.058527306	-3.039435775
H	1.413103038	0.441935405	-3.388154705
H	0.630587407	-0.878896162	-3.315383947
Sn	0.578150643	-3.186902396	-0.763262986
O	0.686142573	-5.104460481	-1.176926288
O	0.913491816	-3.096715696	1.131892397
O	-1.277907381	-2.812806706	-1.025211473
O	2.593997905	-2.8745722	-0.943675889
O	0.974118498	-2.655537878	-2.771939553
H	3.253607192	-3.058139045	-0.265909442
H	0.767963895	-3.403621587	-3.349933345
Si	-0.056871538	-3.526366906	2.389181455
Si	-1.930316642	-2.628815766	-2.536487861
Si	0.626962186	-6.691422396	-0.761058864
Si	3.072093246	-2.637268156	-2.601353157
Si         3.04276      -11.14817       -9.14481
Si        -7.23708        0.70352      -10.90510
Si        -7.23626       -2.49048      -10.90228
Si        -4.22610        0.71135      -10.98999
Si        -4.22529       -2.49465      -10.99017
Si        -9.61851        1.51356       -9.14034
O         -7.20610       -0.89350      -10.65820
O         -5.73103        1.28643      -10.85251
O         -8.12770        1.40950       -9.75679
O         -5.72928       -3.07057      -10.84976
O         -8.12596       -3.19450       -9.75105
O         -4.24214       -0.89166      -10.78807
O         -3.28673        1.38823       -9.86323
O         -3.28299       -3.17077       -9.86449
Si         0.61890        0.70007      -10.97443
Si         0.62072       -2.49693      -10.97861
Si         5.42392        0.70279      -10.90885
Si         5.42474       -2.49121      -10.90603
Si         8.43490        0.71063      -10.99374
Si         8.43571       -2.49537      -10.99393
Si         3.04349        1.51283       -9.14410
O          0.60988       -0.89894      -10.73851
O          0.58845        1.01116      -12.56040
O         -0.67985        1.35611      -10.27200
O          1.95813        1.33296      -10.32779
O          0.58823       -2.80284      -12.56461
O         -0.67611       -3.15589      -10.27626
O          1.96187       -3.12904      -10.33504
O          5.45490       -0.89422      -10.66195
O          6.93097        1.28570      -10.85626
O          4.53330        1.40878       -9.76055
O          6.93272       -3.07130      -10.85351
O          4.53504       -3.19522       -9.75481
O          8.41986       -0.89238      -10.79183
O          9.37427        1.38751       -9.86698
O          9.37801       -3.17149       -9.86824
H         -3.16625        9.47522       -9.80781
H         -0.76836        9.48811      -10.18752
H          2.04862        9.51395      -10.24035
H          4.41678        9.45278       -9.70606
H          0.54424        0.98468       13.73061
H          0.54403       -2.77932       13.72540
Si        -7.90961       -6.71419        2.23068
Si        -7.91243       -3.51719        2.22787
Si       -12.71559       -6.71691        2.29911
Si       -12.71640       -3.52291        2.30229
Si       -10.33311       -7.52715        4.06236
O         -7.90045       -5.11520        2.46777
O         -7.88010       -7.02510        0.64566
O         -6.61044       -7.37030        2.93226
O         -9.24845       -7.34715        2.87805
O         -7.87988       -3.21110        0.64087
O         -6.61418       -2.85830        2.92852
O         -9.25220       -2.88514        2.87130
O        -12.74642       -5.11993        2.54621
O        -11.82429       -7.42203        3.44681
H        -14.10236       -2.98784        2.35173
O        -11.82602       -2.81903        3.45307
Si         4.75139       -6.71491        2.22693
Si         4.74957       -3.51791        2.22411
Si        -0.05359       -6.71764        2.29535
Si        -3.06461       -6.72546        2.21225
Si        -3.06543       -3.51846        2.21243
Si         2.32789       -7.52788        4.05860
O          4.76055       -5.11592        2.46402
O          4.78090       -7.02582        0.64190
O          6.05056       -7.37102        2.92851
O          3.41255       -7.34787        2.87429
O          4.78112       -3.21182        0.63712
O          6.04682       -2.85902        2.92476
O          3.40880       -2.88587        2.86754
O         -0.08442       -5.12065        2.54245
O         -1.56061       -7.29956        2.34877
O          0.83771       -7.42276        3.44305
O         -1.56236       -2.94256        2.35202
O          0.83498       -2.81976        3.44931
O         -3.04946       -5.12247        2.41433
O         -4.00332       -7.40147        3.33949
O         -4.00706       -2.84347        3.33975
Si        12.60741       -6.71836        2.29160
Si        12.60659       -3.52436        2.29478
Si         9.59639       -6.72619        2.20849
Si         9.59557       -3.51919        2.20867
O         12.57658       -5.12138        2.53870
O         11.10139       -7.30028        2.34501
O         11.09964       -2.94328        2.34826
H         13.42595       -2.87647        3.35357
O          9.61254       -5.12320        2.41058
O          8.65768       -7.40220        3.33573
O          8.65394       -2.84420        3.33599
Si        -7.90888        5.94781        2.23140
Si        -7.91170        9.14381        2.22858
Si       -12.71486        5.94509        2.29983
Si       -10.33239        5.13385        4.06307
O         -7.89972        7.54580        2.46849
O         -7.87937        5.63690        0.64637
O         -6.60971        5.29170        2.93298
O         -9.24773        5.31485        2.87876
O         -7.87915        9.44990        0.64159
O         -6.61345        9.80370        2.92923
H         -9.14449        9.72485        2.82098
O        -11.82356        5.23897        3.44752
Si         4.75212        5.94709        2.22765
Si         4.75030        9.14309        2.22483
Si        -0.05286        5.94436        2.29607
Si        -0.05368        9.13736        2.29925
Si        -3.06389        5.93654        2.21296
Si        -3.06470        9.14254        2.21314
Si         2.32861        5.13312        4.05932
O          4.76128        7.54508        2.46473
O          4.78163        5.63618        0.64262
O          6.05129        5.29098        2.92922
O          3.41327        5.31413        2.87501
O          4.78185        9.44918        0.63783
O          6.04754        9.80298        2.92548
O          3.40953        9.77513        2.86826
O         -0.08370        7.54035        2.54317
O         -1.55988        5.36144        2.34948
O          0.83844        5.23824        3.44377
O         -1.56163        9.71844        2.35273
O          0.83570        9.84124        3.45003
O         -3.04874        7.53953        2.41505
O         -4.00259        5.25953        3.34020
O         -4.00633        9.81753        3.34046
Si        12.60814        5.94364        2.29231
Si         9.59711        5.93581        2.20921
Si         9.59629        9.14181        2.20939
H         12.57929        7.41162        2.51941
O         11.10212        5.36072        2.34573
H         13.42841        5.29353        3.34803
H         10.98036        9.67173        2.33801
O          9.61326        7.53880        2.41129
O          8.65841        5.25880        3.33645
O          8.65467        9.81680        3.33671
H         -9.79634       -8.85777       -3.20488
Si        -1.02490      -12.92721       -4.30671
Si         2.16810      -12.92639       -4.30466
Si        -1.03275       -9.91721       -4.38954
Si         2.17325       -9.91639       -4.39049
O          0.57117      -12.89732       -4.05918
O         -1.60780      -11.42118       -4.25245
H         -1.67464      -13.74823       -3.24956
O          2.74920      -11.41943       -4.25174
H          2.81637      -13.74549       -3.24589
O          0.57030       -9.93231       -4.18801
O         -1.70937       -8.97823       -3.26228
O          2.84863       -8.97449       -3.26463
H         10.94166       -8.86296       -3.21003
Si       -10.48647       -5.06866       -4.37346
Si       -13.68618       -0.26549       -4.30224
Si       -10.49218       -0.26467       -4.30018
Si       -10.48703        2.74634       -4.38602
H        -11.95641       -5.07859       -4.15202
O        -10.18094       -5.10159       -5.96055
O         -9.82734       -6.36674       -3.67173
O         -9.85420       -3.72774       -3.73057
O        -12.08910       -0.23459       -4.05471
O         -9.91107        1.24230       -4.24727
O         -9.78788       -1.15477       -3.14944
H        -11.96297        2.73041       -4.19958
O         -9.81164        3.68823       -3.26016
Si        -1.02147       -5.07121       -4.37327
Si         2.17453       -5.06939       -4.37721
Si        -1.02418       -0.26621       -4.30599
Si         2.16882       -0.26539       -4.30394
Si        -1.03203        2.74479       -4.38882
Si         2.17397        2.74561       -4.38977
O          0.57660       -5.08031       -4.13674
O         -1.33294       -5.10210       -5.95818
O         -1.67734       -6.37121       -3.67014
O         -1.65420       -3.73321       -3.72600
O          2.48005       -5.10232       -5.96431
O          2.83466       -6.36747       -3.67548
O          2.80679       -3.72846       -3.73433
O          0.57190       -0.23532       -4.05846
O         -1.60707        1.23982       -4.25174
O         -1.72989       -1.15723       -3.15683
O          2.74993        1.24157       -4.25103
O          2.87311       -1.15550       -3.15320
O          0.57103        2.72869       -4.18730
O         -1.70864        3.68377       -3.26157
O          2.84936        3.68751       -3.26392
Si        11.63953       -5.07193       -4.37702
Si        11.63682       -0.26694       -4.30975
Si        11.62897        2.74407       -4.39258
Si        10.82621       -2.64899       -2.54564
H         13.10959       -5.08003       -4.15946
O         11.32806       -5.10282       -5.96193
O         10.98366       -6.37193       -3.67390
O         11.00680       -3.73393       -3.72976
H         13.10589       -0.23803       -4.08218
O         11.05392        1.23909       -4.25549
O         10.93111       -1.15796       -3.16059
H         13.10402        2.72897       -4.20701
O         10.95236        3.68304       -3.26532
Si       -10.48575        7.59234       -4.37274
H        -10.20418        7.56340       -5.83283
O         -9.82661        6.29526       -3.67101
O         -9.85348        8.93326       -3.72985
Si        -1.02075        7.58979       -4.37255
Si         2.17525        7.59161       -4.37650
Si        -1.02345       12.39479       -4.30528
Si         2.16955       12.39561       -4.30322
Si        -1.83406       10.01374       -2.54117
O          0.57732        7.58069       -4.13602
O         -1.33222        7.55990       -5.95746
O         -1.67661        6.29079       -3.66943
O         -1.65348        8.92879       -3.72529
O          2.48078        7.55968       -5.96359
O          2.83539        6.29453       -3.67477
O          2.80752        8.93254       -3.73361
O          0.57262       12.42568       -4.05775
O         -1.72916       11.50376       -3.15612
O          2.87384       11.50550       -3.15248
Si        11.64025        7.58907       -4.37631
Si        10.82693       10.01301       -2.54493
H         11.35382        7.56117       -5.83422
O         10.98439        6.29007       -3.67318
O         11.00752        8.92807       -3.72904
Si        -6.26532       -0.94265        8.83152
Si        -9.46232       -0.94547        8.82947
Si        -6.26257       -5.74866        8.89825
Si        -9.45657       -5.74947        8.90220
Si        -6.25477       -8.75865        8.81508
Si        -5.45192       -3.36680       10.66214
O         -7.86425       -0.93357        9.06900
O         -5.95479       -0.91258        7.24643
O         -5.60904        0.35627        9.53440
O         -5.63220       -2.28173        9.47826
O         -9.76879       -0.91236        7.24356
H        -10.06806        0.24853        9.47572
H        -10.04321       -2.17847        9.42157
O         -7.85950       -5.77958        9.14672
O         -5.67965       -7.25469        8.95199
O         -5.55618       -4.85776       10.04709
H         -7.72972       -8.74458        9.00152
H         -5.63151       -9.62375        9.85184
Si         6.39568       -0.94338        8.82777
Si         3.19968       -0.94619        8.82572
Si         6.39842       -5.74938        8.89450
Si         3.20543       -5.75020        8.89844
Si         6.40623       -8.75938        8.81132
Si         3.20023       -8.76019        8.81227
Si         7.21008       -3.36753       10.65839
O          4.79775       -0.93430        9.06524
O          6.70621       -0.91331        7.24268
O          7.05196        0.35554        9.53065
O          7.02879       -2.28245        9.47450
O          2.89321       -0.91309        7.23981
O          2.53996        0.35180        9.52798
O          2.56779       -2.28620        9.46983
O          4.80250       -5.78030        9.14297
O          6.98135       -7.25542        8.94824
O          7.10482       -4.85849       10.04334
O          2.62435       -7.25717        8.95153
O          2.50182       -4.86022       10.04970
O          4.80329       -8.74430        9.01380
H          2.57949       -9.62722        9.84841
Si        -6.26185        6.91334        8.89897
Si        -9.45585        6.91253        8.90291
Si        -6.25405        3.90235        8.81579
Si        -9.46005        3.90153        8.81674
O         -7.85878        6.88242        9.14744
O         -5.67892        5.40631        8.95271
H         -5.61149        7.73325        9.95582
O        -10.03592        5.40456        8.95600
O         -7.85699        3.91743        9.01827
O         -5.57677        2.96324        9.94254
H        -10.08179        3.03451        9.85288
Si         6.39915        6.91262        8.89521
Si         3.20615        6.91180        8.89916
Si         6.40695        3.90162        8.81204
Si         3.20095        3.90081        8.81299
H          2.91890       11.79992        7.12452
H          2.54954       10.28880        9.56454
O          4.80322        6.88170        9.14368
O          6.98208        5.40558        8.94895
H          7.04951        7.73252        9.95206
O          2.62508        5.40383        8.95225
O          2.50254        7.80078       10.05042
O          4.80401        3.91670        9.01451
O          7.08423        2.96252        9.93878
O          2.52623        2.95878        9.93914
Si         4.74702        0.70000      -13.94365
Si        -0.05800        0.70328      -14.00823
Si        -0.05918       -2.49072      -14.01241
Si        -3.06897        0.71145      -13.92433
Si        -3.07016       -2.49455      -13.92451
O          4.77751        1.01091      -12.35764
H          4.82933       -2.77810      -12.23787
O         -0.08916       -0.89370      -14.25631
O         -1.56498        1.28637      -14.06175
O         -1.56723       -3.07063      -14.06399
O         -3.05413       -0.89154      -14.12643
Si        -7.90615        0.69924       12.46610
Si        -7.90933       -2.49776       12.46992
O         -7.89731       -0.89975       12.23001
O         -6.60732        1.35520       11.76375
O         -6.61158       -3.15680       11.76750
Si         4.75485        0.69851       12.46235
Si         4.75267       -2.49849       12.46617
Si        -0.05017        0.70179       12.39777
Si        -0.05135       -2.49221       12.39459
Si        -3.06114        0.70996       12.48167
Si        -3.06233       -2.49604       12.48149
Si         2.33036        1.51175       10.63311
O          4.76369       -0.90048       12.22625
H          4.78330        0.98443       13.92136
O          6.05368        1.35448       11.76000
O          3.41570        1.33162       11.81678
H          4.78209       -2.78057       13.92514
O          6.04942       -3.15752       11.76375
O          3.41144       -3.13038       11.82253
O         -0.08133       -0.89519       12.14969
O         -1.55715        1.28488       12.34425
O          0.84053        1.40780       11.24855
O         -1.55940       -3.07212       12.34201
O          0.83727       -3.19620       11.24329
O         -3.04629       -0.89303       12.27957
O         -4.00044        1.38707       11.35498
O         -4.00470       -3.17193       11.35573
H          8.54455        1.39636       11.29426
H          8.54028       -3.18864       11.29600
H          0.95698        9.45180       11.19597
Si       -12.03949       -6.71378       -0.73609
Si       -12.03730       -3.51678       -0.73191
Si        -7.23451       -6.71705       -0.80352
Si        -7.23333       -3.52305       -0.80734
Si        -4.22348       -6.72523       -0.72141
Si        -4.22230       -3.51823       -0.72123
Si        -9.61708       -7.52682       -2.56686
O        -12.04847       -5.11477       -0.97200
O        -12.07003       -7.02487        0.84990
O        -10.70172       -7.34682       -1.38352
O        -12.06982       -3.21087        0.85412
H        -13.23146       -2.91068       -1.37752
O        -10.69646       -2.88482       -1.37627
O         -7.20349       -5.12004       -1.05143
O         -5.72856       -7.29914       -0.85800
O         -8.12589       -7.42194       -1.95229
O         -5.72631       -2.94214       -0.85975
O         -8.12363       -2.81894       -1.95703
O         -4.23945       -5.12222       -0.92331
O         -3.28486       -7.40122       -1.84873
O         -3.28060       -2.84322       -1.84747
Si         5.42649       -6.71778       -0.80727
Si         5.42767       -3.52378       -0.81109
Si         8.43752       -6.72596       -0.72516
Si         8.43870       -3.51896       -0.72498
Si         3.04492       -7.52754       -2.57061
O          0.59196       -7.02559        0.84615
O         -0.67773       -7.37039       -1.44150
O          1.96028       -7.34755       -1.38728
O          5.45751       -5.12077       -1.05519
O          6.93344       -7.29986       -0.86175
O          4.53511       -7.42266       -1.95605
O          6.93569       -2.94286       -0.86351
O          4.53737       -2.81966       -1.96079
O          8.42255       -5.12294       -0.92707
O          9.37614       -7.40195       -1.85248
O          9.38040       -2.84395       -1.85122
Si        13.28251       -6.71523       -0.74360
Si        13.28469       -3.51823       -0.73942
O         13.27353       -5.11622       -0.97951
O         13.25296       -7.02632        0.84239
O         11.98326       -7.37112       -1.44525
O         13.25318       -3.21232        0.84661
O         11.98752       -2.85912       -1.44100
H         14.51855       -2.93727       -1.33175
Si       -12.03876        5.94822       -0.73537
Si        -7.23378        5.94495       -0.80280
Si        -7.23260        9.13795       -0.80662
Si        -4.22276        5.93677       -0.72069
Si        -4.22157        9.14277       -0.72051
Si        -9.61635        5.13418       -2.56614
H        -12.04674        7.41823       -0.95229
O        -12.06931        5.63713        0.85062
H        -13.23499        5.34432       -1.38105
O        -10.70099        5.31518       -1.38281
O         -7.20276        7.54096       -1.05072
O         -5.72783        5.36186       -0.85728
O         -8.12516        5.23906       -1.95158
O         -5.72558        9.71886       -0.85903
O         -8.12290        9.84206       -1.95632
O         -4.23873        7.53978       -0.92260
O         -3.28413        5.25978       -1.84801
O         -3.27987        9.81778       -1.84675
Si         0.62224        5.94749       -0.73913
Si         0.62442        9.14349       -0.73495
Si         5.42722        5.94422       -0.80656
Si         5.42840        9.13722       -0.81038
Si         8.43824        5.93604       -0.72445
Si         8.43942        9.14204       -0.72427
Si         3.04565        5.13346       -2.56989
O          0.61326        7.54551       -0.97504
O          0.59269        5.63641        0.84686
O         -0.67701        5.29161       -1.44078
O          1.96101        5.31445       -1.38656
O          0.59291        9.44941        0.85108
O         -0.67275        9.80361       -1.43653
O          1.96527        9.77545       -1.37931
O          5.45823        7.54023       -1.05447
O          6.93417        5.36114       -0.86104
O          4.53584        5.23834       -1.95533
O          6.93642        9.71814       -0.86279
O          4.53810        9.84134       -1.96007
O          8.42327        7.53906       -0.92635
O          9.37687        5.25905       -1.85177
O          9.38113        9.81705       -1.85051
Si        13.28324        5.94677       -0.74289
O         13.25369        5.63568        0.84311
O         11.98399        5.29088       -1.44454
Si        -6.25571       -9.91749        5.88101
Si        -9.46171       -9.91630        5.88196
H         -5.72683      -11.30151        5.75478
O         -7.85877       -9.93238        5.67949
O         -5.57899       -8.97846        4.75387
O        -10.13799       -8.97420        4.75522
Si         6.39709      -12.92821        5.79309
Si         3.20409      -12.92702        5.79104
Si         6.40529       -9.91821        5.87726
Si         3.19929       -9.91703        5.87821
O          4.80102      -12.89810        5.54656
O          6.98016      -11.42224        5.74000
O          2.62316      -11.41999        5.73829
H          2.55573      -13.74593        4.73218
O          4.80223       -9.93311        5.67573
O          7.08201       -8.97919        4.75011
O          2.52401       -8.97493        4.75146
Si        -6.26644       -5.07149        5.86429
Si        -9.46343       -5.06930        5.86824
Si        -6.26318       -0.26648        5.79756
Si        -9.45718       -0.26530        5.79551
Si        -6.25498        2.74451        5.88173
Si        -9.46098        2.74570        5.88268
Si        -5.45384       -2.64843        4.03319
O         -7.86551       -5.08038        5.62776
O         -5.95497       -5.10259        7.44920
O         -5.61072       -6.37148        5.16202
O         -5.63355       -3.73348        5.21718
O         -9.76897       -5.10237        7.45533
O        -10.12272       -6.36722        5.16736
O        -10.09555       -3.72823        5.22550
O         -7.86025       -0.23538        5.55104
O         -5.68011        1.23949        5.74447
O         -5.55757       -1.15746        4.64830
O        -10.03711        1.24174        5.74277
O        -10.16157       -1.15519        4.64467
O         -7.85804        2.72862        5.68020
O         -5.57826        3.68354        4.75458
O        -10.13726        3.68780        4.75593
Si         6.39456       -5.07221        5.86053
Si         3.19856       -5.07003        5.86448
Si         6.39782       -0.26721        5.79381
Si         3.20482       -0.26602        5.79175
Si         6.40602        2.74379        5.87797
Si         3.20002        2.74497        5.87892
Si         7.20816       -2.64915        4.02943
O          4.79649       -5.08111        5.62401
O          6.70603       -5.10332        7.44544
O          7.05028       -6.37221        5.15827
O          7.02745       -3.73421        5.21342
O          2.89303       -5.10310        7.45157
O          2.53828       -6.36795        5.16361
O          2.56645       -3.72895        5.22175
O          4.80175       -0.23610        5.54728
O          6.98089        1.23876        5.74072
O          7.10343       -1.15818        4.64455
O          2.62389        1.24101        5.73901
O          2.50043       -1.15592        4.64091
O          4.80296        2.72789        5.67645
O          7.08274        3.68281        4.75083
O          2.52474        3.68707        4.75218
Si        -6.26571        7.58951        5.86501
Si        -9.46271        7.59170        5.86895
Si        -5.45311       10.01357        4.03390
O         -7.86478        7.58062        5.62848
O         -5.95424        7.55941        7.44991
O         -5.60999        6.29052        5.16274
O         -5.63283        8.92852        5.21789
O         -9.76824        7.55963        7.45604
O        -10.12199        6.29478        5.16808
H        -10.04381        8.82576        5.27720
H         -5.54887       11.38455        4.60001
Si         6.39529        7.58879        5.86125
Si         3.19929        7.59097        5.86520
Si         3.20554       12.39498        5.79247
Si         7.20888       10.01285        4.03015
O          4.79722        7.57989        5.62472
O          6.70676        7.55868        7.44616
O          7.05101        6.28979        5.15898
O          7.02817        8.92779        5.21414
O          2.89376        7.55890        7.45229
O          2.53901        6.29405        5.16432
O          2.56718        8.93204        5.22246
H          4.67448       12.42290        5.56803
H          7.11213       11.38382        4.59625
O          2.50115       11.50508        4.64163
H         -1.30833      -13.52112       -5.63966
H         -1.69200      -12.21196       -8.13247
H          2.45467      -13.52233       -5.63577
H          2.85000      -12.21522       -8.12882
Si       -10.48711       -0.94450       -7.33422
Si       -10.49341       -5.74849       -7.40749
H        -11.95718       -0.93340       -7.55479
O        -10.18064       -0.91160       -5.74731
O         -9.82825        0.35350       -8.03635
O         -9.85538       -2.28450       -7.97749
H         -9.95850       -7.13452       -7.45673
O         -9.78970       -4.85847       -8.55865
Si        -1.02212       -0.94204       -7.34003
Si         2.17389       -0.94522       -7.33798
Si        -1.02541       -5.74804       -7.40730
Si         2.16759       -5.74922       -7.41125
Si        -1.03356       -8.75804       -7.32347
Si         2.17244       -8.75922       -7.32442
Si        -1.83680       -3.36589       -9.17093
O          0.57581       -0.93312       -7.57751
O         -1.33264       -0.91211       -5.75494
O         -1.67825        0.35704       -8.04276
O         -1.65538       -2.28097       -7.98692
O          2.48036       -0.91233       -5.75107
O          2.83375        0.35278       -8.04010
O          2.80562       -2.28522       -7.98124
O          0.57051       -5.77911       -7.65478
O         -1.60851       -7.25400       -7.46022
O         -1.73170       -4.85693       -8.55604
O          2.74849       -7.25625       -7.46451
O          2.87130       -4.85919       -8.56241
O          0.56938       -8.74312       -7.52595
O         -1.71095       -9.69794       -8.45032
O          2.84705       -9.70120       -8.45168
Si        11.63888       -0.94276       -7.34379
Si        11.63559       -5.74876       -7.41106
Si        10.82420       -3.36661       -9.17468
O         11.32836       -0.91284       -5.75869
O         10.98275        0.35631       -8.04652
O         11.00561       -2.28169       -7.99068
H         11.09949       -7.13473       -7.45998
O         10.92930       -4.85765       -8.55980
Si       -10.48783        3.90250       -7.31995
H         -9.95779        5.28548       -7.44903
O         -9.81322        2.96053       -8.44720
Si        -1.02139       11.71896       -7.33932
Si         2.17461       11.71678       -7.33726
Si        -1.02469        6.91396       -7.40659
Si         2.16831        6.91278       -7.41053
Si        -1.03283        3.90296       -7.32275
Si         2.17317        3.90178       -7.32371
Si        -1.83607        9.29511       -9.17021
O          0.57654       11.72788       -7.57679
O         -1.33192       11.74889       -5.75422
O         -1.65466       10.38003       -7.98620
O          2.48108       11.74867       -5.75035
O          2.80634       10.37578       -7.98053
O          0.57124        6.88289       -7.65406
O         -1.60779        5.40700       -7.45950
O         -1.73097        7.80507       -8.55533
O          2.74921        5.40475       -7.46379
O          2.87202        7.80181       -8.56169
O          0.57011        3.91788       -7.52523
O         -1.71022        2.96406       -8.44961
O          2.84778        2.95980       -8.45096
Si        11.62817        3.90224       -7.32651
H         11.09921        5.28627       -7.45227
O         10.95078        2.96334       -8.45336
Si        -1.83924      -11.14489       -9.15737
Si        -9.61779       -3.36644       -9.15462
Si        -1.83851        1.51611       -9.15665
Si         3.04321       -3.36717       -9.15837
Si        10.82249        1.51539       -9.16041
Si         3.04393        9.29483       -9.15766
Si        -5.45112       -7.53043        4.04691
Si       -10.33384       -2.64715        4.04863
Si         7.20988       -7.53115        4.04315
Si         2.32816       -2.64787        4.04488
Si        -5.45039        5.13157        4.04762
Si         7.21061        5.13085        4.04387
Si         2.32889       10.01313        4.04559
Si        -9.61579       -2.64682       -2.55358
Si        -1.83707       -7.53026       -2.55616
Si        10.82393       -7.53099       -2.55992
Si        -9.61507       10.01418       -2.55286
Si        -1.83635        5.13174       -2.55545
Si         3.04593       10.01346       -2.55662
Si        10.82465        5.13101       -2.55920
Si        -5.44864        1.51520       10.64842
Si         7.21236        1.51447       10.64466
Si         2.33008       -3.36825       10.64584
Si         2.33081        9.29375       10.64655
O         -3.64752        1.06440      -12.45714
O         -3.64774       -2.84760      -12.45736
H         -3.59372        1.03491       13.83184
H         -3.59394       -2.82109       13.83162
O         -3.64407       -7.07735        0.74540
O         -3.64384       -3.16635        0.74562
O          9.01693       -7.07807        0.74164
O          9.01715       -3.16707        0.74186
O         -3.64334        5.58365        0.74611
O         -3.64312        9.49465        0.74634
O          9.01766        5.58293        0.74236
O          9.01788        9.49393        0.74258
O         -1.38616       -9.33810       -5.85640
O          2.52484       -9.33833       -5.85756
O        -10.13543        3.32440       -5.85309
O         -1.38543        3.32390       -5.85568
O          2.52557        3.32367       -5.85684
O         11.27557        3.32317       -5.85944
O         -5.90224       -9.33859        7.34794
O          6.75876       -9.33932        7.34419
O          2.84776       -9.33909        7.34535
O         -5.90151        3.32341        7.34866
O         -9.81351        3.32363        7.34982
O          6.75948        3.32268        7.34490
O          2.84848        3.32291        7.34606
H          2.04443      -11.31405      -10.23353
H          4.41359      -11.24522       -9.71223
H         -7.83146        0.98663      -12.23790
H         -7.83167       -2.77737      -12.23412
H        -10.61684        1.34767      -10.22906
H          8.96751        1.03567      -12.34388
H          8.96729       -2.82033      -12.34410
H        -14.10160       -7.25184        2.34849
H         13.42769       -7.36747        3.34732
H        -12.74371        7.41307        2.52692
H        -14.10088        5.40916        2.34921
H        -14.22108        1.12054       -4.25200
H        -13.96961       -0.85939       -5.63519
H        -14.33491       -1.08551       -3.24509
H        -11.95568        7.58241       -4.15131
H         -1.55936       13.78082       -4.25504
H          2.70464       13.78257       -4.25430
H         13.11032        7.58097       -4.15874
H         11.89522        9.81989       -1.52825
H         10.92385       11.38404       -3.11088
H         -9.99064       -7.13545        8.95128
H        -10.10421       -4.93050        9.96144
H          7.02949       -9.62447        9.84809
H        -10.10349        7.73050        9.96215
H          3.51488        1.28211      -14.53825
H          5.94186        1.30397      -14.58997
H          4.75487       -0.77098      -14.16074
H          0.76172        1.35330      -15.06543
H          0.75847       -3.13870      -15.07068
H         -3.93325        1.33456      -14.96104
H         -3.93750       -3.11644      -14.96029
H         -7.87770        0.98515       13.92511
H         -9.13829        1.28134       11.87250
H         -7.87891       -2.77985       13.92890
H         -9.14254       -3.07866       11.87826
H        -13.23571       -7.31768       -1.38177
H         14.51430       -7.29727       -1.33900
H         13.27526        7.41678       -0.95980
H         14.51503        5.36473       -1.33828
H         -9.99183      -11.29927        5.75304
H         -9.78628       -9.38436        7.23209
H          6.68045      -13.52230        7.12597
H          7.04673      -13.74918        4.73585
H          2.91745      -13.52308        7.12309
H          2.67061       13.78201        5.74371
H        -11.96248       -5.77640       -7.63106
H         13.10882       -0.93484       -7.56222
H         13.10452       -5.77783       -7.63850
H         11.89191       -3.17362      -10.19199
H        -11.96389        3.91760       -7.50551
H         -1.62551       12.91403       -7.98607
H          2.78149       12.90978       -7.98338
H         13.10311        3.91616       -7.51295
H         -3.17144      -11.26378       -9.80698
H         -0.77355      -11.29289      -10.18369
H        -10.61310       -3.14733      -10.23731
H         11.88817        1.36838      -10.18673
H         -9.77315       11.38722       -3.10074
H        -10.60976        9.79518       -1.46958
H          3.32614        9.51263       11.72927
