38

C	1.493692036	0.258087035	1.861835746
C	0.039731614	0.004028685	1.562188693
O	-0.808094232	-0.074360858	2.414805760
C	-0.356805884	-0.130048957	0.092116792
O	0.598420783	-0.824988334	-0.693682491
H	2.065862251	-0.652399439	1.623104231
H	1.612921479	0.492717333	2.925900752
H	1.878703835	1.079209610	1.239135810
H	-0.514052220	0.880234917	-0.323686221
H	-1.305978857	-0.677841640	0.037289765
H	1.388363779	-0.266658375	-0.879204300
O	2.658333017	0.859202736	-1.118892083
H	2.849424203	1.225444155	-1.991467526
H	3.518959161	0.704855858	-0.714124850
Sn	0.612158288	-3.145669364	-0.738878197
O	0.740897446	-5.091168793	-1.070754012
O	0.883274287	-3.051795297	1.157795373
O	-1.253938649	-2.875412022	-1.062065432
O	2.623017432	-2.680632013	-0.865736119
O	1.071123820	-2.787234030	-2.723564257
H	3.293027337	-2.828916020	-0.180719304
H	0.847970120	-3.560047517	-3.266403668
Si	-0.065055824	-3.525476580	2.397582776
Si	-1.927492997	-2.638494287	-2.538525671
Si	0.632019157	-6.683878670	-0.751075431
Si	3.028322262	-2.637429093	-2.585036165
H	-0.082093006	-4.993213007	2.530075999
H	-1.441797984	-2.989370003	2.354879996
H	0.763755005	-2.876394002	3.364387002
H	-1.675706979	-3.644507933	-3.630539002
H	2.825128968	-3.640395086	-3.642461030
H	-1.745342024	-1.274605965	-3.106902944
H	2.886142987	-1.273272117	-3.107821070
H	-3.171994982	-2.825717043	-1.902292028
H	0.594469009	-6.999977996	0.718542006
H	-0.573646036	-7.317194017	-1.386096019
H	1.853322983	-7.296180991	-1.336213998
H	4.417262059	-2.804298827	-2.010803910